---- qbsp / ericw-tools v0.18.1 ----
Input file: Skymaze.map
Output file: Skymaze.bsp

---- LoadMapFile ----
*** WARNING 06: No info_player_deathmatch entities in level
         1723 faces
          256 brushes
          120 entities
           12 unique texnames
          108 texinfo

Opened WAD: C:/QuakeDev/wads/prototype_1_2.wad
Processing hull 0...
---- Brush_LoadEntity ----
          240 brushes
          428 planes
---- CSGFaces ----
         1619 brushfaces
         1904 csgfaces
         1471 mergedfaces
---- SolidBSP ----
         2228 split nodes
          878 solid leafs
         1344 empty leafs
            7 water leafs
            0 detail leafs
            0 detail illusionary leafs
            0 detail fence leafs
            0 illusionary visblocker leafs
         4190 leaffaces
         3887 nodefaces
---- Portalize ----
         1351 vis leafs
         1351 vis clusters
         3928 vis portals
---- FillOutside ----
*** WARNING 10: Reached occupant at (-144 1808 520), no filling performed.
Leak file written to Skymaze.pts
---- MakeFaceEdges ----
---- GrowRegions ----
Processing hull 1...
Processing hull 2...
*** WARNING 16: Texture __TB_empty not found
---- WriteBSPFile ----
Wrote Skymaze.bsp
          818 planes            16360
         4852 vertexes          58224
         2332 nodes             55968
           89 texinfo            3560
         3991 faces             79820
         1257 clipnodes         10056
         1456 leafs             40768
         4294 marksurfaces       8588
        15611 surfedges         62444
        10112 edges             40448
           14 textures          59060
              lightdata             0
              visdata               0
              entdata            9614

0.449 seconds elapsed
Peak memory usage: 17268108 (16.5M)
